%nproc=32
%chk=test.chk
%mem=1Gb
# b3lyp/6-31g opt freq

test

0 1
 C 0.0 0.0 0.0
 C 1.2145 0.694 0.0
 C 1.2145 2.082 0.0
 C 0.0 2.776 0.0
 C -1.2145 2.082 0.0
 C -1.2145 0.694 0.0
 C 2.429 0.0 0.0
 C 3.6434999999999995 0.694 0.0
 C 3.6434999999999995 2.082 0.0
 C 2.4289999999999994 2.776 0.0
 C -4.440892098500626E-16 4.164 0.0
 C -1.2145000000000004 4.858 0.0
 C -2.4290000000000003 4.164 0.0
 C -2.4290000000000003 2.776 0.0
 C 2.4289999999999994 4.164 0.0
 C 1.2144999999999995 4.858 0.0
 C 4.858 2.776 0.0
 C 4.858 4.164 0.0
 C 3.6434999999999995 4.858 0.0
 C 1.2144999999999995 6.2459999999999996 0.0
 C -4.440892098500626E-16 6.9399999999999995 0.0
 C -1.2145000000000004 6.2459999999999996 0.0
 C 3.6434999999999995 6.2459999999999996 0.0
 C 2.4289999999999994 6.9399999999999995 0.0
 H 0.0 -1.0 0.0
 H -2.082 0.19829999999999998 0.0
 H 2.429 -1.0 0.0
 H 4.510999999999999 0.19829999999999998 0.0
 H -3.2965000000000004 4.6597 0.0
 H -3.2965000000000004 2.2803 0.0
 H 5.725499999999999 2.2803 0.0
 H 5.725499999999999 4.6597 0.0
 H -4.440892098500626E-16 7.9399999999999995 0.0
 H -2.0820000000000003 6.7417 0.0
 H 4.510999999999999 6.7417 0.0
 H 2.4289999999999994 7.9399999999999995 0.0

